Version 4
SHEET 1 880 680
WIRE -16 -160 -224 -160
WIRE 272 -160 64 -160
WIRE 272 -144 272 -160
WIRE -224 -48 -224 -160
WIRE 48 -48 48 -112
WIRE -224 128 -224 16
WIRE 48 128 48 32
WIRE 48 128 -224 128
WIRE 272 128 272 -64
WIRE 272 128 48 128
FLAG 48 128 0
FLAG 0 -112 0
SYMBOL polcap -240 -48 R0
WINDOW 3 24 56 Left 2
SYMATTR InstName C1
SYMATTR Value 100µ IC=50
SYMATTR SpiceLine V=63 Irms=900m Rser=0.1 Lser=0 mfg="Nichicon" pn="UPH1J101MRH" type="Al electrolytic"
SYMATTR Description Capacitor
SYMATTR Type cap
SYMBOL ind 256 -160 R0
SYMATTR InstName L1
SYMATTR Value 674.174µ
SYMATTR SpiceLine Rser=0.607
SYMBOL sw -32 -160 R270
WINDOW 3 24 -12 Left 2
WINDOW 38 24 -12 Left 2
SYMATTR InstName S1
SYMATTR Value ""
SYMATTR SpiceModel SW
SYMBOL voltage 48 -64 R0
WINDOW 123 0 0 Left 2
WINDOW 39 0 0 Left 2
SYMATTR InstName V1
SYMATTR Value PULSE(0 5 1m 0 0 10m 10m 1)
TEXT -224 176 Left 2 !.tran 0 10m 0 1u
TEXT -224 216 Left 2 !.model SW SW()
