Version 4
SHEET 1 880 680
WIRE -560 -144 -768 -144
WIRE -272 -144 -480 -144
WIRE -112 -144 -272 -144
WIRE -768 -32 -768 -144
WIRE -496 -32 -496 -96
WIRE -272 -32 -272 -144
WIRE -112 32 -112 -80
WIRE -768 144 -768 32
WIRE -496 144 -496 48
WIRE -496 144 -768 144
WIRE -272 144 -272 48
WIRE -272 144 -496 144
WIRE -112 144 -112 96
WIRE -112 144 -272 144
FLAG -496 144 0
FLAG -544 -96 0
SYMBOL polcap -784 -32 R0
WINDOW 3 24 56 Left 2
SYMATTR InstName C1
SYMATTR Value 100µ IC=50
SYMATTR SpiceLine V=63 Irms=900m Rser=0.1 Lser=0
SYMATTR Description Capacitor
SYMATTR Type cap
SYMBOL ind -288 -48 R0
SYMATTR InstName L1
SYMATTR Value 674.174µ
SYMATTR SpiceLine Rser=0.607
SYMBOL sw -576 -144 R270
WINDOW 3 24 -12 Left 2
WINDOW 38 24 -12 Left 2
SYMATTR InstName S1
SYMATTR Value ""
SYMATTR SpiceModel SW
SYMBOL voltage -496 -48 R0
WINDOW 3 -166 123 Left 2
WINDOW 123 0 0 Left 2
WINDOW 39 0 0 Left 2
SYMATTR InstName V1
SYMATTR Value PULSE(0 5 1m 0 0 400u 10m 1)
SYMBOL diode -96 -80 R180
WINDOW 0 24 64 Left 2
WINDOW 3 24 0 Left 2
SYMATTR InstName D2
SYMBOL polcap -96 96 R180
WINDOW 0 24 57 Left 2
WINDOW 3 24 8 Left 2
SYMATTR InstName C2
SYMATTR Value 100µ
SYMATTR Description Capacitor
SYMATTR Type cap
SYMATTR SpiceLine V=100 Irms=385m Rser=0.1 Lser=0
TEXT -768 192 Left 2 !.tran 0 10m 0 1u
TEXT -768 232 Left 2 !.model SW SW(Ron=5m, Vt=2)
