Version 4
SHEET 1 1344 752
WIRE 144 96 48 96
WIRE 240 96 208 96
WIRE 304 96 240 96
WIRE 448 96 304 96
WIRE 304 160 304 96
WIRE 208 176 208 144
WIRE 208 176 192 176
WIRE 112 240 112 176
WIRE 240 240 240 96
WIRE 240 240 112 240
WIRE 448 288 448 96
WIRE 48 320 48 96
WIRE 144 320 48 320
WIRE 304 320 304 224
WIRE 304 320 224 320
WIRE 240 400 128 400
WIRE 304 400 304 320
WIRE 240 464 240 400
WIRE 160 480 160 464
WIRE 48 528 48 320
WIRE 128 528 128 400
WIRE 128 528 48 528
WIRE 160 528 128 528
WIRE 304 528 304 464
WIRE 304 528 224 528
WIRE 448 528 448 352
WIRE 448 528 304 528
FLAG 304 528 0
SYMBOL Misc\\SCR 144 112 R270
WINDOW 3 67 -17 VRight 2
WINDOW 0 42 -15 VRight 2
SYMATTR Value TN3050H-12LY
SYMATTR InstName U1
SYMBOL voltage 128 320 R270
WINDOW 3 -47 -5 VRight 2
WINDOW 123 0 0 Left 2
WINDOW 39 0 0 Left 2
SYMATTR Value SINE(0 325 50)
SYMATTR InstName V1
SYMBOL voltage 208 176 R90
WINDOW 0 32 56 VTop 2
WINDOW 3 -40 89 VBottom 2
WINDOW 123 0 0 Left 2
WINDOW 39 0 0 Left 2
SYMATTR InstName V2
SYMATTR Value PULSE(0 5 {Tdelay} 1u 1u {Ton} 20m)
SYMBOL polcap 288 160 R0
WINDOW 3 24 56 Left 2
SYMATTR Value 47µ
SYMATTR InstName C1
SYMATTR Description Capacitor
SYMATTR Type cap
SYMATTR SpiceLine V=6.3 Irms=34m Rser=2.4 Lser=0
SYMBOL polcap 432 288 R0
WINDOW 3 24 56 Left 2
SYMATTR Value 1000µ
SYMATTR InstName C2
SYMATTR Description Capacitor
SYMATTR Type cap
SYMATTR SpiceLine V=50 Irms=2 Rser=100m Lser=0
SYMBOL polcap 288 400 R0
WINDOW 3 24 56 Left 2
SYMATTR Value 47µ
SYMATTR InstName C3
SYMATTR Description Capacitor
SYMATTR Type cap
SYMATTR SpiceLine V=6.3 Irms=34m Rser=2.4 Lser=0
SYMBOL Misc\\SCR 224 512 R90
WINDOW 3 67 -17 VRight 2
WINDOW 0 42 -15 VRight 2
SYMATTR Value TN3050H-12LY
SYMATTR InstName U2
SYMBOL voltage 144 464 R270
WINDOW 0 32 56 VTop 2
WINDOW 3 -40 89 VBottom 2
WINDOW 123 0 0 Left 2
WINDOW 39 0 0 Left 2
SYMATTR InstName V3
SYMATTR Value PULSE(0 5 {Tdelay + 10m} 1u 1u {Ton} 20m)
TEXT 112 696 Left 2 !.inc C:\\Users\\vsridh252\\Documents\\LTspiceXVII\\lib\\high-temperature_scr_pspice\\st_high-temperature_scr.lib
TEXT 112 656 Left 2 !.tran 0 1 0 1m uic
TEXT 112 736 Left 2 !.parm Ton=300u Tdelay=9.7m
TEXT 696 128 Left 2 ;SCR List\n1. TYN1225
