Version 4
SHEET 1 1072 680
WIRE -624 -512 -736 -512
WIRE -432 -512 -560 -512
WIRE -224 -512 -432 -512
WIRE -432 -480 -432 -512
WIRE -944 -448 -976 -448
WIRE -816 -448 -864 -448
WIRE -560 -448 -560 -464
WIRE -560 -448 -816 -448
WIRE -224 -416 -224 -512
WIRE -976 -368 -976 -448
WIRE -736 -352 -736 -512
WIRE -624 -352 -736 -352
WIRE -432 -352 -432 -416
WIRE -432 -352 -544 -352
WIRE -432 -272 -432 -352
WIRE -816 -224 -816 -448
WIRE -624 -224 -816 -224
WIRE -736 -176 -736 -352
WIRE -624 -176 -736 -176
WIRE -432 -176 -432 -208
WIRE -432 -176 -560 -176
WIRE -224 -176 -224 -352
WIRE -224 -176 -432 -176
FLAG -432 -176 0
FLAG -976 -368 0
SYMBOL Misc\\SCR -624 -496 R270
WINDOW 0 44 -14 VRight 2
WINDOW 3 72 -20 VRight 2
SYMATTR InstName U1
SYMATTR Value TN3050H-12LY
SYMBOL voltage -640 -352 R270
WINDOW 3 76 11 VRight 2
WINDOW 123 0 0 Left 2
WINDOW 39 0 0 Left 2
SYMATTR InstName V1
SYMATTR Value SINE(0 325 50)
SYMBOL voltage -848 -448 R90
WINDOW 0 32 56 VTop 2
WINDOW 3 -32 56 VBottom 2
WINDOW 123 0 0 Left 2
WINDOW 39 0 0 Left 2
SYMATTR InstName V2
SYMATTR Value PULSE(0 5 5m 1u 1u 1m 20m)
SYMBOL Misc\\SCR -560 -192 R90
WINDOW 0 44 -14 VRight 2
WINDOW 3 72 -20 VRight 2
SYMATTR InstName U2
SYMATTR Value TN3050H-12LY
SYMBOL cap -448 -480 R0
SYMATTR InstName C1
SYMATTR Value 47µ
SYMATTR SpiceLine Rser=1.3
SYMBOL cap -448 -272 R0
SYMATTR InstName C2
SYMATTR Value 47µ
SYMATTR SpiceLine Rser=1.3
SYMBOL cap -240 -416 R0
SYMATTR InstName C3
SYMATTR Value 1000µ
SYMATTR SpiceLine Rser=100m
TEXT -1072 -24 Left 2 !.inc C:\\Users\\vignu\\Documents\\LTspiceXVII\\lib\\high-temperature_scr_pspice\\st_high-temperature_scr.lib
TEXT -1070 -68 Left 2 !.tran 0 60m 0 0.1m
