Version 4
SHEET 1 1296 712
WIRE 144 96 -80 96
WIRE 288 96 208 96
WIRE 448 96 288 96
WIRE 448 144 448 96
WIRE -80 160 -80 96
WIRE 208 192 208 144
WIRE 288 192 288 96
WIRE -80 384 -80 240
WIRE 192 384 -80 384
WIRE 448 384 448 224
WIRE 448 384 192 384
FLAG 192 384 0
SYMBOL Misc\\SCR 144 112 R270
WINDOW 3 24 -28 Left 2
SYMATTR InstName U1
SYMATTR Value TN3050H-12LY
SYMBOL voltage -80 144 R0
WINDOW 3 76 11 VRight 2
WINDOW 123 0 0 Left 2
WINDOW 39 0 0 Left 2
SYMATTR InstName V1
SYMATTR Value SINE(0 325 50)
SYMBOL res 432 128 R0
SYMATTR InstName R1
SYMATTR Value 10
SYMBOL voltage 192 192 R270
WINDOW 0 32 56 VTop 2
WINDOW 3 -32 56 VBottom 2
WINDOW 123 0 0 Left 2
WINDOW 39 0 0 Left 2
SYMATTR InstName V2
SYMATTR Value PULSE(0 5 5m 1u 1u 1m 20m)
TEXT 112 696 Left 2 !.inc C:\\Users\\vignu\\Documents\\LTspiceXVII\\lib\\high-temperature_scr_pspice\\st_high-temperature_scr.lib
TEXT 114 652 Left 2 !.tran 0 1 0 1m
